[TITLE]
;Created by Giswater
;Giswater, the open water management tool.
Ins_montano_heavy Jan-2020        


[OPTIONS]
;;Parameter  		 Value
;;------------------ --------------------
FLOW_UNITS              LPS
INFILTRATION            CURVE_NUMBER
FLOW_ROUTING            DYNWAVE
LINK_OFFSETS            ELEVATION
FORCE_MAIN_EQUATION     H-W
IGNORE_RAINFALL         NO
IGNORE_SNOWMELT         NO
IGNORE_GROUNDWATER      NO
IGNORE_ROUTING          NO
IGNORE_QUALITY          NO
SKIP_STEADY_STATE       NO
START_DATE              01/01/1990
START_TIME              0:00:00
END_DATE                01/02/1990
END_TIME                0:00:00
REPORT_START_DATE       01/01/1990
REPORT_START_TIME       0:00:00
SWEEP_START             01/01/2000
SWEEP_END               01/01/2000
DRY_DAYS                10
REPORT_STEP             0:01:00
WET_STEP                0:01:00
DRY_STEP                0:01:00
ROUTING_STEP            0:00:02
INERTIAL_DAMPING        NONE
NORMAL_FLOW_LIMITED     BOTH
MIN_SURFAREA            0.000000
MIN_SLOPE               0.000000
ALLOW_PONDING           YES
MAX_TRIALS              0
HEAD_TOLERANCE          0.0000
SYS_FLOW_TOL            5
LAT_FLOW_TOL            5


[REPORT]
;;Parameter  		 Value
;;------------------ --------------------
INPUT                   YES
CONTINUITY              YES
FLOWSTATS               YES
CONTROLS                YES
SUBCATCHMENTS           ALL
NODES                   ALL
LINKS                   ALL


[FILES]
;;Action   Parameter  Fname
;;-------- ---------- ------------------------------


[EVAPORATION]
;;Other_Val
;;----------------------------


[RAINGAGES]
;;RG_ID          Form_Type    Intvl        SCF          Other_Val
;;-------------- ------------ ------------ ------------ ------------------------------
1                INTENSITY    0:01         1.0000       FILE               C:\Users\User\Desktop\trigeau\raingage\raingage\CAE-Chicago2Y.txt                                                                                                                                                                                              RG_CAE       mm           


[TEMPERATURE]
;;Other_Val
;;----------------------------


[SUBCATCHMENTS]
;;SUBC_ID        RG_ID            NOD_ID           Area             Imperv     Width            Slope            Clength
;;-------------- ---------------- ---------------- ---------------- ---------- ---------------- ---------------- ---------------
R1               1                4                0.035000         100.0000     50.0000          0.3000           0.0000                            
R2               1                5                0.024500         100.0000     35.0000          0.3000           0.0000                            
R3               1                6                0.035000         100.0000     50.0000          0.3000           0.0000                            
R4               1                7                0.024500         100.0000     35.0000          0.3000           0.0000                            
R5               1                8                0.035000         100.0000     50.0000          0.3000           0.0000                            
R6               1                9                0.024500         100.0000     35.0000          0.3000           0.0000                            
R7               1                10               0.035000         100.0000     50.0000          0.3000           0.0000                            
R8               1                11               0.024500         100.0000     35.0000          0.3000           0.0000                            
S1               1                4                0.215000         45.0000      50.0000          0.3000           0.0000                            
S3               1                6                0.215000         45.0000      50.0000          0.3000           0.0000                            
S5               1                8                0.215000         45.0000      50.0000          0.3000           0.0000                            
S7               1                10               0.215000         45.0000      50.0000          0.3000           0.0000                            
S2               1                5                0.150500         45.0000      35.0000          0.3000           0.0000                            
S4               1                7                0.150500         45.0000      35.0000          0.3000           0.0000                            
S6               1                9                0.150500         45.0000      35.0000          0.3000           0.0000                            
S8               1                11               0.150500         45.0000      35.0000          0.3000           0.0000                            
R9               1                12               0.075000         100.0000     50.0000          1.1000           0.0000                            
R10              1                13               0.075000         100.0000     50.0000          1.1000           0.0000                            
R11              1                14               0.075000         100.0000     50.0000          1.1000           0.0000                            
R12              1                15               0.075000         100.0000     50.0000          1.1000           0.0000                            


[SUBAREAS]
;;SUBC_ID        Nimp       Nperv      Simp       Sperv      Zero       Routeto    Rted
;;-------------- ---------- ---------- ---------- ---------- ---------- ---------- ------------
R1               0.0100       0.1000       0.0500       0.0500       25.0000      OUTLET                    
R2               0.0100       0.1000       0.0500       0.0500       25.0000      OUTLET                    
R3               0.0100       0.1000       0.0500       0.0500       25.0000      OUTLET                    
R4               0.0100       0.1000       0.0500       0.0500       25.0000      OUTLET                    
R5               0.0100       0.1000       0.0500       0.0500       25.0000      OUTLET                    
R6               0.0100       0.1000       0.0500       0.0500       25.0000      OUTLET                    
R7               0.0100       0.1000       0.0500       0.0500       25.0000      OUTLET                    
R8               0.0100       0.1000       0.0500       0.0500       25.0000      OUTLET                    
S1               0.0100       0.1000       0.0500       0.0500       25.0000      OUTLET                    
S3               0.0100       0.1000       0.0500       0.0500       25.0000      OUTLET                    
S5               0.0100       0.1000       0.0500       0.0500       25.0000      OUTLET                    
S7               0.0100       0.1000       0.0500       0.0500       25.0000      OUTLET                    
S2               0.0100       0.1000       0.0500       0.0500       25.0000      OUTLET                    
S4               0.0100       0.1000       0.0500       0.0500       25.0000      OUTLET                    
S6               0.0100       0.1000       0.0500       0.0500       25.0000      OUTLET                    
S8               0.0100       0.1000       0.0500       0.0500       25.0000      OUTLET                    
R9               0.0100       0.1000       0.0500       0.0500       25.0000      OUTLET                    
R10              0.0100       0.1000       0.0500       0.0500       25.0000      OUTLET                    
R11              0.0100       0.1000       0.0500       0.0500       25.0000      OUTLET                    
R12              0.0100       0.1000       0.0500       0.0500       25.0000      OUTLET                    


[INFILTRATION]
;;SUBC_ID        Other_Val
;;-------------- ----------
R1               90.0000      0.5000       7.0000       
R2               90.0000      0.5000       7.0000       
R3               90.0000      0.5000       7.0000       
R4               90.0000      0.5000       7.0000       
R5               90.0000      0.5000       7.0000       
R6               90.0000      0.5000       7.0000       
R7               90.0000      0.5000       7.0000       
R8               90.0000      0.5000       7.0000       
S1               72.0000      0.5000       7.0000       
S3               72.0000      0.5000       7.0000       
S5               72.0000      0.5000       7.0000       
S7               72.0000      0.5000       7.0000       
S2               72.0000      0.5000       7.0000       
S4               72.0000      0.5000       7.0000       
S6               72.0000      0.5000       7.0000       
S8               72.0000      0.5000       7.0000       
R9               90.0000      0.5000       7.0000       
R10              90.0000      0.5000       7.0000       
R11              90.0000      0.5000       7.0000       
R12              90.0000      0.5000       7.0000       


[AQUIFERS]
;;AQUIF_ID       Por       WP         FC         K          Ks         Ps         UEF        LED        GWR        BE         WTE        UMC		UEF_patt
;;-------------- --------- ---------- ---------- ---------- ---------- ---------- ---------- ---------- ---------- ---------- ---------- ---------- ----------------


[GROUNDWATER]
;;SUBC_ID        AQUIF_ID         NOD_ID           SurfEl	  A1         B1         A2         B2         A3         TW         H
;;-------------- ---------------- ---------------- ---------- ---------- ---------- ---------- ---------- ---------- ---------- ----------


[GWF]
;;SUBC_ID  		 Flow    	Equation
;;-------------- ----------	-------------------------------------


[SNOWPACKS]
;;SNOW_ID        Type_SNPK          Other_Val
;;-------------- ------------------ ----------------


[JUNCTION]
;;NODE_ID        Elev         Ymax         Y0           Ysur         Apond
;;-------------- ------------ ------------ ------------ ------------ ----------------
10               96.350       1.800        0.0000       0.0000       0.0000           
11               96.200       1.800        0.0000       0.0000       0.0000           
12               97.700       1.800        0.0000       0.0000       0.0000           
13               97.150       1.800        0.0000       0.0000       0.0000           
14               96.600       1.800        0.0000       0.0000       0.0000           
15               96.050       1.800        0.0000       0.0000       0.0000           
4                98.000       1.800        0.0000       0.0000       0.0000           
5                97.850       1.800        0.0000       0.0000       0.0000           
6                97.450       1.800        0.0000       0.0000       0.0000           
7                97.300       1.800        0.0000       0.0000       0.0000           
8                96.900       1.800        0.0000       0.0000       0.0000           
9                96.750       1.800        0.0000       0.0000       0.0000           


[OUTFALLS]
;;NODE_ID        Elev         Type_OTF           Other_Val
;;-------------- ------------ ------------------ ----------------
16               95.500       FREE                            


[DIVIDERS]
;;NODE_ID        Elev         ARC_ID           Type_DIV           Other_Val
;;-------------- ------------ ---------------- ------------------ ----------------


[STORAGE]
;;NODE_ID        Elev         Ymax         Y0           Type_STOR          Other_Val
;;-------------- ------------ ------------ ------------ ------------------ ----------------


[CONDUITS]
;;ARC_ID         NODE1            NODE2            Length           N            Z1           Z2         Q0			Qmax
;;-------------- ---------------- ---------------- ---------------- ------------ ------------ ---------- ---------- ------------
28               15               16               50.000           0.012        96.650       96.100       0.0000       0.0000       
27               14               15               50.000           0.012        97.300       96.750       0.0000       0.0000       
26               13               14               50.000           0.012        97.950       97.400       0.0000       0.0000       
25               12               13               50.000           0.012        98.500       97.950       0.0000       0.0000       
24               11               15               50.000           0.012        97.100       96.950       0.0000       0.0000       
23               10               11               50.000           0.012        97.350       97.200       0.0000       0.0000       
22               9                14               50.000           0.012        97.650       97.500       0.0000       0.0000       
21               8                9                50.000           0.012        97.900       97.750       0.0000       0.0000       
20               7                13               50.001           0.012        98.200       98.050       0.0000       0.0000       
19               6                7                50.000           0.012        98.450       98.300       0.0000       0.0000       
18               5                12               50.000           0.012        98.750       98.600       0.0000       0.0000       
17               4                5                50.000           0.012        99.000       98.850       0.0000       0.0000       


[PUMPS]
;;ARC_ID         NODE1            NODE2            CURVE_ID           Status       Startup      Shutoff
;;-------------- ---------------- ---------------- ------------------ ------------ ------------ ------------


[ORIFICES]
;;ARC_ID         NODE1            NODE2            Type_ORI           Offset       CD           Flap         Orate
;;-------------- ---------------- ---------------- ------------------ ------------ ------------ ------------ ------------


[WEIRS]
;;ARC_ID         NODE1            NODE2            Type_WEIR          Offset       CD           Flap         EC           CD2		   Surcharge
;;-------------- ---------------- ---------------- ------------------ ------------ ------------ ------------ ------------ ------------ ------------


[OUTLETS]
;;ARC_ID         NODE1            NODE2            Offset       Type_OTL           Other_Val
;;-------------- ---------------- ---------------- ------------ ------------------ ----------------


[XSECTIONS]
;;ARC_ID         Shape_Type       Other_val
;;-------------- ---------------- ----------------
28               CIRCULAR         0.7000       0.0000       0.0000       0.0000                                 
27               CIRCULAR         0.6000       0.0000       0.0000       0.0000                                 
26               CIRCULAR         0.5000       0.0000       0.0000       0.0000                                 
25               CIRCULAR         0.5000       0.0000       0.0000       0.0000                                 
24               CIRCULAR         0.4000       0.0000       0.0000       0.0000                                 
23               CIRCULAR         0.3000       0.0000       0.0000       0.0000                                 
22               CIRCULAR         0.4000       0.0000       0.0000       0.0000                                 
21               CIRCULAR         0.3000       0.0000       0.0000       0.0000                                 
20               CIRCULAR         0.4000       0.0000       0.0000       0.0000                                 
19               CIRCULAR         0.3000       0.0000       0.0000       0.0000                                 
18               CIRCULAR         0.4000       0.0000       0.0000       0.0000                                 
17               CIRCULAR         0.3000       0.0000       0.0000       0.0000                                 


[LOSSES]
;;ARC_ID         Kentry       Kexit        Kavg         Flap         Seepage
;;-------------- ------------ ------------ ------------ ------------ ----------


[TRANSECTS]
;;Text
;;----------------------------


[CONTROLS]
;;Text
;;----------------------------


[POLLUTANTS]
;;POLL_ID        Units_Type   Crain        CGW          CII          KD           Sflag        COPOLL_ID        Cofract      CDWF
;;-------------- ------------ ------------ ------------ ------------ ------------ ------------ ---------------- ------------ ------------


[LANDUSES]
;;LAND_ID        Sweepint     Availab      Lastsweep
;;-------------- ------------ ------------ ------------


[COVERAGES]
;;SUBC_ID        LAND_ID          Percent
;;-------------- ---------------- ------------


[BUILDUP]
;;LAND_ID        POLL_ID          FUNC_Type          C1           C2           C3           PerUnit
;;-------------- ---------------- ------------------ ------------ ------------ ------------ ------------


[WASHOFF]
;;LAND_ID        POLL_ID          FUNC_Type    C1           C2           Sweepeffic   Bmpeffic
;;-------------- ---------------- ------------ ------------ ------------ ------------ ------------


[TREATMENT]
;;NODE_ID        POLL_ID          Function
;;-------------- ---------------- ----------------


[DWF]
;;NODE_ID        Item             Value        PAT1             PAT2             PAT3             PAT4
;;-------------- ---------------- ------------ ---------------- ---------------- ---------------- ----------------
4                FLOW             0E-7                                                                             
5                FLOW             0E-7                                                                             
6                FLOW             0E-7                                                                             
7                FLOW             0E-7                                                                             
8                FLOW             0E-7                                                                             
9                FLOW             0E-7                                                                             
10               FLOW             0E-7                                                                             
11               FLOW             0E-7                                                                             
12               FLOW             0E-7                                                                             
13               FLOW             0E-7                                                                             
14               FLOW             0E-7                                                                             
15               FLOW             0E-7                                                                             


[PATTERNS]
;;PATMO_ID       Type_PAT           Other_Val
;;-------------- ------------------ ------------


[INFLOWS]
;;NODE_ID        Inf_Type           TIMSER_ID        Other_Val
;;-------------- ------------------ ---------------- ------------------


[LOADINGS]
;;SUBC_ID        POLL_ID          Ibuildup
;;-------------- ---------------- ------------


[RDII]
;;NODE_ID        HYDRO_ID         SewerArea
;;-------------- ---------------- ----------------


[HYDROGRAPHS]
;;HYDRO_ID       Column1          Hydro_Type         R            T            K            Dmax         Drec         D0
;;-------------- ---------------- ------------------ ------------ ------------ ------------ ------------ ------------ ------------


[CURVES]
;;CURVE_ID       Curve_Type         Xvalue       Yvalue
;;-------------- ------------------ ------------ ------------


[TIMESERIES]
;;TIMSER_ID      Other_Val
;;-------------- ------------------


[LID_CONTROLS]
;;LIDCO_ID       Lidco_Type         Other_Val
;;-------------- ------------------ ------------


[LID_USAGE]
;;SUBC_ID        LIDCO_ID         Number       Area               Width        Initsat      FromImp      ToPerv       RptFile
;;-------------- ---------------- ------------ ------------------ ------------ ------------ ------------ ------------ ------------


[ADJUSTMENTS]
;;Parameter   Monthly Adjustments
;;----------  ------------------


[MAP]
;;Type_map         Other_value
;;---------------- ------------------


[BACKDROP]
;;Text
;;----------------------------


[SYMBOLS]
;;RG_ID          Xcoord             Ycoord
;;-------------- ------------------ ------------------
1                1513358.027        4910351.560        


[LABELS]
;;Xcoord           Ycoord             Label            SUBC_ID          Font                          Size         Bold         Italic
;;---------------- ------------------ ---------------- ---------------- ----------------------------- ------------ ------------ ------------


[COORDINATES]
;;NODE_ID        Xcoord             Ycoord
;;-------------- ------------------ ------------------
10               1513225.356        4910186.575        
11               1513275.356        4910186.575        
12               1513325.354        4910336.575        
13               1513325.355        4910286.575        
14               1513325.355        4910236.575        
15               1513325.356        4910186.575        
4                1513225.355        4910336.575        
5                1513275.355        4910336.575        
6                1513225.354        4910286.575        
7                1513275.354        4910286.575        
8                1513225.355        4910236.575        
9                1513275.355        4910236.575        
16               1513325.356        4910136.575        


[VERTICES]
;;ARC_ID         Xcoord             Ycoord
;;-------------- ------------------ ------------------


[Polygons]
;;Subcatchment   X-Coord            Y-Coord
;;-------------- ------------------ ------------------
