[TITLE]
;Created by Giswater
;Giswater, the open water management tool.
inscostiero_heavy_drwh Oct-2019        


[OPTIONS]
;;Parameter  		 Value
;;------------------ --------------------
FLOW_UNITS              LPS
INFILTRATION            CURVE_NUMBER
FLOW_ROUTING            DYNWAVE
LINK_OFFSETS            ELEVATION
FORCE_MAIN_EQUATION     H-W
IGNORE_RAINFALL         NO
IGNORE_SNOWMELT         NO
IGNORE_GROUNDWATER      NO
IGNORE_ROUTING          NO
IGNORE_QUALITY          NO
SKIP_STEADY_STATE       NO
START_DATE              01/01/1990
START_TIME              00:00:00
END_DATE                01/02/1990
END_TIME                00:00:00
REPORT_START_DATE       01/01/1990
REPORT_START_TIME       00:00:00
SWEEP_START             01/01
SWEEP_END               12/31
DRY_DAYS                10
REPORT_STEP             00:01:00
WET_STEP                00:01:00
DRY_STEP                00:01:00
ROUTING_STEP            00:00:02
INERTIAL_DAMPING        NONE
NORMAL_FLOW_LIMITED     BOTH
MIN_SURFAREA            0.000000
MIN_SLOPE               0.000000
ALLOW_PONDING           YES
MAX_TRIALS              0
HEAD_TOLERANCE          0.0000
SYS_FLOW_TOL            5
LAT_FLOW_TOL            5


[REPORT]
;;Parameter  		 Value
;;------------------ --------------------
INPUT                   YES
CONTINUITY              YES
FLOWSTATS               YES
CONTROLS                YES
SUBCATCHMENTS           ALL
NODES                   ALL
LINKS                   ALL


[FILES]
;;Action   Parameter  Fname
;;-------- ---------- ------------------------------


[EVAPORATION]
;;Other_Val
;;----------------------------


[RAINGAGES]
;;RG_ID          Form_Type    Intvl        SCF          Other_Val
;;-------------- ------------ ------------ ------------ ------------------------------
RG1              INTENSITY    0:01         1.0000       FILE               C:\Users\User\Desktop\trigeau\raingage\raingage\CAE-Chicago2Y.txt                                                                                                                                                                                              RG_CAE       mm           


[TEMPERATURE]
;;Other_Val
;;----------------------------


[SUBCATCHMENTS]
;;SUBC_ID        RG_ID            NOD_ID           Area             Imperv     Width            Slope            Clength
;;-------------- ---------------- ---------------- ---------------- ---------- ---------------- ---------------- ---------------
R1               RG1              9                0.035000         100.0000     50.0000          0.8000           0.0000                            
R2               RG1              10               0.024500         100.0000     35.0000          0.8000           0.0000                            
R3               RG1              11               0.035000         100.0000     50.0000          0.8000           0.0000                            
R4               RG1              12               0.024500         100.0000     35.0000          0.8000           0.0000                            
R5               RG1              13               0.035000         100.0000     50.0000          0.8000           0.0000                            
R6               RG1              14               0.024500         100.0000     35.0000          0.8000           0.0000                            
R9               RG1              17               0.075000         100.0000     50.0000          0.3000           0.0000                            
R10              RG1              18               0.075000         100.0000     50.0000          0.3000           0.0000                            
R7               RG1              15               0.035000         100.0000     50.0000          0.8000           0.0000                            
R8               RG1              16               0.025000         100.0000     35.0000          0.8000           0.0000                            
R11              RG1              19               0.075000         100.0000     50.0000          0.3000           0.0000                            
R12              RG1              20               0.075000         100.0000     50.0000          0.3000           0.0000                            
T1               RG1              34               0.064500         100.0000     50.0000          1.0000           0.0000                            
T2               RG1              38               0.045150         100.0000     35.0000          1.0000           0.0000                            
S1               RG1              9                0.150500         21.5000      50.0000          0.8000           0.0000                            
S2               RG1              10               0.105350         21.5000      35.0000          0.8000           0.0000                            
S3               RG1              11               0.150500         21.5000      50.0000          0.8000           0.0000                            
S4               RG1              12               0.105350         21.5000      35.0000          0.8000           0.0000                            
S5               RG1              13               0.150500         21.5000      50.0000          0.8000           0.0000                            
S6               RG1              14               0.105350         21.5000      35.0000          0.8000           0.0000                            
S7               RG1              15               0.150500         21.5000      50.0000          0.8000           0.0000                            
S8               RG1              16               0.105350         21.5000      35.0000          0.8000           0.0000                            
T8               RG1              16               0.045150         100.0000     35.0000          1.0000           0.0000                            
T3               RG1              35               0.064500         100.0000     50.0000          1.0000           0.0000                            
T4               RG1              39               0.045150         100.0000     35.0000          1.0000           0.0000                            
T5               RG1              36               0.064500         100.0000     50.0000          1.0000           0.0000                            
T6               RG1              40               0.045150         100.0000     35.0000          1.0000           0.0000                            
T7               RG1              37               0.064500         100.0000     50.0000          1.0000           0.0000                            


[SUBAREAS]
;;SUBC_ID        Nimp       Nperv      Simp       Sperv      Zero       Routeto    Rted
;;-------------- ---------- ---------- ---------- ---------- ---------- ---------- ------------
R1               0.0100       0.1000       0.0500       0.0500       25.0000      OUTLET                    
R2               0.0100       0.1000       0.0500       0.0500       25.0000      OUTLET                    
R3               0.0100       0.1000       0.0500       0.0500       25.0000      OUTLET                    
R4               0.0100       0.1000       0.0500       0.0500       25.0000      OUTLET                    
R5               0.0100       0.1000       0.0500       0.0500       25.0000      OUTLET                    
R6               0.0100       0.1000       0.0500       0.0500       25.0000      OUTLET                    
R9               0.0100       0.1000       0.0500       0.0500       25.0000      OUTLET                    
R10              0.0100       0.1000       0.0500       0.0500       25.0000      OUTLET                    
R7               0.0100       0.1000       0.0500       0.0500       25.0000      OUTLET                    
R8               0.0100       0.1000       0.0500       0.0500       25.0000      OUTLET                    
R11              0.0100       0.1000       0.0500       0.0500       25.0000      OUTLET                    
R12              0.0100       0.1000       0.0500       0.0500       25.0000      OUTLET                    
T1               0.0100       0.1000       0.0500       0.0500       25.0000      OUTLET                    
T2               0.0100       0.1000       0.0500       0.0500       25.0000      OUTLET                    
S1               0.0100       0.1000       0.0500       0.0500       25.0000      OUTLET                    
S2               0.0100       0.1000       0.0500       0.0500       25.0000      OUTLET                    
S3               0.0100       0.1000       0.0500       0.0500       25.0000      OUTLET                    
S4               0.0100       0.1000       0.0500       0.0500       25.0000      OUTLET                    
S5               0.0100       0.1000       0.0500       0.0500       25.0000      OUTLET                    
S6               0.0100       0.1000       0.0500       0.0500       25.0000      OUTLET                    
S7               0.0100       0.1000       0.0500       0.0500       25.0000      OUTLET                    
S8               0.0100       0.1000       0.0500       0.0500       25.0000      OUTLET                    
T8               0.0100       0.1000       0.0500       0.0500       25.0000      OUTLET                    
T3               0.0100       0.1000       0.0500       0.0500       25.0000      OUTLET                    
T4               0.0100       0.1000       0.0500       0.0500       25.0000      OUTLET                    
T5               0.0100       0.1000       0.0500       0.0500       25.0000      OUTLET                    
T6               0.0100       0.1000       0.0500       0.0500       25.0000      OUTLET                    
T7               0.0100       0.1000       0.0500       0.0500       25.0000      OUTLET                    


[INFILTRATION]
;;SUBC_ID        Other_Val
;;-------------- ----------
R1               90.0000      0.5000       7.0000       
R2               90.0000      0.5000       7.0000       
R3               90.0000      0.5000       7.0000       
R4               90.0000      0.5000       7.0000       
R5               90.0000      0.5000       7.0000       
R6               90.0000      0.5000       7.0000       
R9               90.0000      0.5000       7.0000       
R10              90.0000      0.5000       7.0000       
R7               90.0000      0.5000       7.0000       
R8               90.0000      0.5000       7.0000       
R11              90.0000      0.5000       7.0000       
R12              90.0000      0.5000       7.0000       
T1               90.0000      0.5000       7.0000       
T2               90.0000      0.5000       7.0000       
S1               72.0000      0.5000       7.0000       
S2               72.0000      0.5000       7.0000       
S3               72.0000      0.5000       7.0000       
S4               72.0000      0.5000       7.0000       
S5               72.0000      0.5000       7.0000       
S6               72.0000      0.5000       7.0000       
S7               72.0000      0.5000       7.0000       
S8               72.0000      0.5000       7.0000       
T8               90.0000      0.5000       7.0000       
T3               90.0000      0.5000       7.0000       
T4               90.0000      0.5000       7.0000       
T5               90.0000      0.5000       7.0000       
T6               90.0000      0.5000       7.0000       
T7               90.0000      0.5000       7.0000       


[AQUIFERS]
;;AQUIF_ID       Por       WP         FC         K          Ks         Ps         UEF        LED        GWR        BE         WTE        UMC		UEF_patt
;;-------------- --------- ---------- ---------- ---------- ---------- ---------- ---------- ---------- ---------- ---------- ---------- ---------- ----------------


[GROUNDWATER]
;;SUBC_ID        AQUIF_ID         NOD_ID           SurfEl	  A1         B1         A2         B2         A3         TW         H
;;-------------- ---------------- ---------------- ---------- ---------- ---------- ---------- ---------- ---------- ---------- ----------


[GWF]
;;SUBC_ID  		 Flow    	Equation
;;-------------- ----------	-------------------------------------


[SNOWPACKS]
;;SNOW_ID        Type_SNPK          Other_Val
;;-------------- ------------------ ----------------


[JUNCTION]
;;NODE_ID        Elev         Ymax         Y0           Ysur         Apond
;;-------------- ------------ ------------ ------------ ------------ ----------------
10               98.200       1.400        0.0000       0.0000       0.0000           
11               98.200       1.650        0.0000       0.0000       0.0000           
12               98.200       1.250        0.0000       0.0000       0.0000           
13               98.200       1.500        0.0000       0.0000       0.0000           
14               98.200       1.100        0.0000       0.0000       0.0000           
15               98.200       1.350        0.0000       0.0000       0.0000           
16               98.200       0.950        0.0000       0.0000       0.0000           
17               97.000       2.200        0.0000       0.0000       0.0000           
18               97.000       2.050        0.0000       0.0000       0.0000           
19               97.000       1.900        0.0000       0.0000       0.0000           
20               97.000       1.750        0.0000       0.0000       0.0000           
9                98.200       1.800        0.0000       0.0000       0.0000           


[OUTFALLS]
;;NODE_ID        Elev         Type_OTF           Other_Val
;;-------------- ------------ ------------------ ----------------
21               97.000       FREE                            
43               100.500      NORMAL                          


[DIVIDERS]
;;NODE_ID        Elev         ARC_ID           Type_DIV           Other_Val
;;-------------- ------------ ---------------- ------------------ ----------------


[STORAGE]
;;NODE_ID        Elev         Ymax         Y0           Type_STOR          Other_Val
;;-------------- ------------ ------------ ------------ ------------------ ----------------
34               100.000      2.500        0.2500       FUNCTIONAL         11.0000      0.0000       0.0000                                                                            
35               100.000      2.500        0.2500       FUNCTIONAL         11.0000      0.0000       0.0000                                                                            
36               100.000      2.500        0.2500       FUNCTIONAL         11.0000      0.0000       0.0000                                                                            
37               100.000      2.500        0.2500       FUNCTIONAL         11.0000      0.0000       0.0000                                                                            
38               100.000      2.500        0.2500       FUNCTIONAL         8.0000       0.0000       0.0000                                                                            
39               100.000      2.500        0.2500       FUNCTIONAL         8.0000       0.0000       0.0000                                                                            
40               100.000      2.500        0.2500       FUNCTIONAL         8.0000       0.0000       0.0000                                                                            
41               100.000      2.500        0.2500       FUNCTIONAL         8.0000       0.0000       0.0000                                                                            


[CONDUITS]
;;ARC_ID         NODE1            NODE2            Length           N            Z1           Z2         Q0			Qmax
;;-------------- ---------------- ---------------- ---------------- ------------ ------------ ---------- ---------- ------------
22               9                10               50.000           0.012        99.200       98.800       0.0000       0.0000       
23               11               12               50.000           0.012        99.050       98.650       0.0000       0.0000       
24               13               14               50.000           0.012        98.900       98.500       0.0000       0.0000       
25               15               16               50.000           0.012        98.750       98.350       0.0000       0.0000       
26               10               17               50.000           0.012        98.700       98.300       0.0000       0.0000       
27               12               18               50.001           0.012        98.550       98.150       0.0000       0.0000       
28               14               19               50.000           0.012        98.400       98.000       0.0000       0.0000       
29               16               20               50.000           0.012        98.250       97.850       0.0000       0.0000       
30               17               18               50.000           0.012        97.800       97.650       0.0000       0.0000       
31               18               19               50.000           0.012        97.650       97.500       0.0000       0.0000       
32               19               20               50.000           0.012        97.400       97.250       0.0000       0.0000       
33               20               21               50.000           0.012        97.150       97.000       0.0000       0.0000       


[PUMPS]
;;ARC_ID         NODE1            NODE2            CURVE_ID           Status       Startup      Shutoff
;;-------------- ---------------- ---------------- ------------------ ------------ ------------ ------------
44               34               43               P1               OFF          0.1000       0.0000       


[ORIFICES]
;;ARC_ID         NODE1            NODE2            Type_ORI           Offset       CD           Flap         Orate
;;-------------- ---------------- ---------------- ------------------ ------------ ------------ ------------ ------------


[WEIRS]
;;ARC_ID         NODE1            NODE2            Type_WEIR          Offset       CD           Flap         EC           CD2		   Surcharge
;;-------------- ---------------- ---------------- ------------------ ------------ ------------ ------------ ------------ ------------ ------------
42               34               9                SIDEFLOW           102.4000     1.8400                                                           


[OUTLETS]
;;ARC_ID         NODE1            NODE2            Offset       Type_OTL           Other_Val
;;-------------- ---------------- ---------------- ------------ ------------------ ----------------


[XSECTIONS]
;;ARC_ID         Shape_Type       Other_val
;;-------------- ---------------- ----------------
22               CIRCULAR         0.3000       0.0000       0.0000       0.0000                                 
23               CIRCULAR         0.3000       0.0000       0.0000       0.0000                                 
24               CIRCULAR         0.3000       0.0000       0.0000       0.0000                                 
25               CIRCULAR         0.3000       0.0000       0.0000       0.0000                                 
26               CIRCULAR         0.4000       0.0000       0.0000       0.0000                                 
27               CIRCULAR         0.4000       0.0000       0.0000       0.0000                                 
28               CIRCULAR         0.4000       0.0000       0.0000       0.0000                                 
29               CIRCULAR         0.4000       0.0000       0.0000       0.0000                                 
30               CIRCULAR         0.5000       0.0000       0.0000       0.0000                                 
31               CIRCULAR         0.5000       0.0000       0.0000       0.0000                                 
32               CIRCULAR         0.6000       0.0000       0.0000       0.0000                                 
33               CIRCULAR         0.7000       0.0000       0.0000       0.0000                                 
42               RECT_OPEN        0.1000       0.4000       0.0000       0.0000       


[LOSSES]
;;ARC_ID         Kentry       Kexit        Kavg         Flap         Seepage
;;-------------- ------------ ------------ ------------ ------------ ----------


[TRANSECTS]
;;Text
;;----------------------------


[CONTROLS]
;;Text
;;----------------------------
RULE 1A  
IF SIMULATION CLOCKTIME > 06:00:00 
AND SIMULATION CLOCKTIME < 08:00:00 
THEN PUMP 44 STATUS = ON 


RULE 1B  
IF SIMULATION CLOCKTIME > 13:00:00 
AND SIMULATION CLOCKTIME < 15:00:00 
THEN PUMP 44 STATUS = ON 


RULE 1C  
IF SIMULATION CLOCKTIME > 19:00:00 
AND SIMULATION CLOCKTIME < 21:00:00 
THEN PUMP 44 STATUS = ON 
ELSE PUMP 44 STATUS = OFF


[POLLUTANTS]
;;POLL_ID        Units_Type   Crain        CGW          CII          KD           Sflag        COPOLL_ID        Cofract      CDWF
;;-------------- ------------ ------------ ------------ ------------ ------------ ------------ ---------------- ------------ ------------


[LANDUSES]
;;LAND_ID        Sweepint     Availab      Lastsweep
;;-------------- ------------ ------------ ------------


[COVERAGES]
;;SUBC_ID        LAND_ID          Percent
;;-------------- ---------------- ------------


[BUILDUP]
;;LAND_ID        POLL_ID          FUNC_Type          C1           C2           C3           PerUnit
;;-------------- ---------------- ------------------ ------------ ------------ ------------ ------------


[WASHOFF]
;;LAND_ID        POLL_ID          FUNC_Type    C1           C2           Sweepeffic   Bmpeffic
;;-------------- ---------------- ------------ ------------ ------------ ------------ ------------


[TREATMENT]
;;NODE_ID        POLL_ID          Function
;;-------------- ---------------- ----------------


[DWF]
;;NODE_ID        Item             Value        PAT1             PAT2             PAT3             PAT4
;;-------------- ---------------- ------------ ---------------- ---------------- ---------------- ----------------
10               FLOW             0E-7                                                                             
11               FLOW             0E-7                                                                             
12               FLOW             0E-7                                                                             
13               FLOW             0E-7                                                                             
14               FLOW             0E-7                                                                             
15               FLOW             0E-7                                                                             
16               FLOW             0E-7                                                                             
17               FLOW             0E-7                                                                             
18               FLOW             0E-7                                                                             
19               FLOW             0E-7                                                                             
20               FLOW             0E-7                                                                             
9                FLOW             0E-7                                                                             


[PATTERNS]
;;PATMO_ID       Type_PAT           Other_Val
;;-------------- ------------------ ------------


[INFLOWS]
;;NODE_ID        Inf_Type           TIMSER_ID        Other_Val
;;-------------- ------------------ ---------------- ------------------


[LOADINGS]
;;SUBC_ID        POLL_ID          Ibuildup
;;-------------- ---------------- ------------


[RDII]
;;NODE_ID        HYDRO_ID         SewerArea
;;-------------- ---------------- ----------------


[HYDROGRAPHS]
;;HYDRO_ID       Column1          Hydro_Type         R            T            K            Dmax         Drec         D0
;;-------------- ---------------- ------------------ ------------ ------------ ------------ ------------ ------------ ------------


[CURVES]
;;CURVE_ID       Curve_Type         Xvalue       Yvalue
;;-------------- ------------------ ------------ ------------
P1               PUMP2            0.100000     0.055000     
P1                                2.400000     0.055000     
P1                                2.500000     0.055000     
P2               PUMP2            0.100000     0.037000     
P2                                2.400000     0.037000     
P2                                2.500000     0.037000     


[TIMESERIES]
;;TIMSER_ID      Other_Val
;;-------------- ------------------


[LID_CONTROLS]
;;LIDCO_ID       Lidco_Type         Other_Val
;;-------------- ------------------ ------------
PP               PP                                                                                                            
PP               SURFACE            0.0000       0.0000       0.0000       0.0000       5.0000                                 
PP               PAVEMENT           80.0000      0.1800       0.0000       9000.0000    0.0000       0.0000       0.0000       
PP               STORAGE            50.0000      0.9000       0.0000       0.0000                                              
PP               DRAIN              30.0000      0.5000       8.0000       6.0000       0.0000       0.0000                    
TV               GR                                                                                                            
TV               SURFACE            0.0000       0.0000       0.0000       0.0000       5.0000                                 
TV               SOIL               120.0000     0.6600       0.4300       0.0700       1000.0000    15.0000      1.0000       
TV               DRAINMAT           25.0000      0.4000       0.0200                                                           


[LID_USAGE]
;;SUBC_ID        LIDCO_ID         Number       Area               Width        Initsat      FromImp      ToPerv       RptFile
;;-------------- ---------------- ------------ ------------------ ------------ ------------ ------------ ------------ ------------


[ADJUSTMENTS]
;;Parameter   Monthly Adjustments
;;----------  ------------------


[MAP]
;;Type_map         Other_value
;;---------------- ------------------


[BACKDROP]
;;Text
;;----------------------------


[SYMBOLS]
;;RG_ID          Xcoord             Ycoord
;;-------------- ------------------ ------------------
RG1              1513223.866        4910347.415        


[LABELS]
;;Xcoord           Ycoord             Label            SUBC_ID          Font                          Size         Bold         Italic
;;---------------- ------------------ ---------------- ---------------- ----------------------------- ------------ ------------ ------------


[COORDINATES]
;;NODE_ID        Xcoord             Ycoord
;;-------------- ------------------ ------------------
10               1513195.526        4910286.684        
11               1513145.526        4910336.684        
12               1513145.526        4910286.684        
13               1513095.526        4910336.683        
14               1513095.526        4910286.683        
15               1513045.526        4910336.682        
16               1513045.526        4910286.682        
17               1513195.526        4910236.684        
18               1513145.526        4910236.683        
19               1513095.526        4910236.683        
20               1513045.526        4910236.682        
9                1513195.526        4910336.684        
21               1512995.526        4910236.682        
43               1513186.010        4910311.053        
34               1513182.733        4910332.896        
35               1513132.221        4910332.623        
36               1513081.709        4910332.623        
37               1513031.197        4910332.623        
38               1513181.368        4910283.203        
39               1513132.494        4910283.749        
40               1513081.709        4910283.203        
41               1513032.016        4910283.476        


[VERTICES]
;;ARC_ID         Xcoord             Ycoord
;;-------------- ------------------ ------------------


[Polygons]
;;Subcatchment   X-Coord            Y-Coord
;;-------------- ------------------ ------------------
